 12
 DMS-SO2
   S     1.46471659E+00    0.00000000E+00    3.64413394E-01
   O     1.53321914E+00   -1.23595477E+00   -3.82801919E-01
   O     1.53321914E+00    1.23595477E+00   -3.82801919E-01
   S    -1.47392052E+00    0.00000000E+00    5.92007741E-01
   C    -1.61680173E+00   -1.35791219E+00   -5.66194164E-01
   C    -1.61680173E+00    1.35791219E+00   -5.66194164E-01
   H    -7.72177733E-01   -1.36505738E+00   -1.25283087E+00
   H    -7.72177733E-01    1.36505738E+00   -1.25283087E+00
   H    -1.61083182E+00   -2.27782677E+00    1.14717438E-02
   H    -1.61083182E+00    2.27782677E+00    1.14717438E-02
   H    -2.55331764E+00   -1.27956898E+00   -1.11239102E+00
   H    -2.55331764E+00    1.27956898E+00   -1.11239102E+00
