    6
Kraus, P., Obenchain, D.A., Frank, I.; Benchmark-Quality Semi-Experimental Str
 C       1.949087       0.548923      -0.000000
 H       1.214420       1.367620      -0.000000
 H       3.008289       0.845725       0.000000
 O       1.605788      -0.604054       0.000000
Cl      -1.517318       0.030577       0.000000
 H      -0.268285      -0.223436      -0.000000
