    7
Kraus, P., Obenchain, D.A., Frank, I.; Benchmark-Quality Semi-Experimental Str
 C       2.479100       0.316682       0.000000
 H       2.404544       1.414152      -0.000000
 H       3.496367      -0.101849       0.000000
 O       1.498525      -0.380227      -0.000000
 H      -0.595779      -0.145386      -0.000000
 C      -1.654245      -0.026696      -0.000000
 N      -2.800362       0.101822       0.000000
