    6
Kraus, P., Obenchain, D.A., Frank, I.; Benchmark-Quality Semi-Experimental Str
 C       1.401131       0.486568       0.000000
 H       0.810102       1.414299      -0.000000
 H       2.499987       0.536726      -0.000000
 O       0.849879      -0.582698      -0.000000
 H      -0.849057      -0.162157      -0.000000
 F      -1.731072       0.088351       0.000000
