    5
Kraus, P., Obenchain, D.A., Frank, I.; Benchmark-Quality Semi-Experimental Str
 N      -1.607456      -0.786046      -1.166002
 N      -1.533668      -0.720459      -0.044338
 O      -1.455929      -0.651369       1.137093
Ar       1.896301      -0.376386      -0.013423
Ne      -0.425553       2.328660      -0.035153
