7
m062x-d3/def2-qzvpd:HCN-H2CO-rSE.xyz
 C    2.461706950412    0.306454852621    0.000000000000
 H    2.385627853585    1.404150788186    0.000000000000
 H    3.473875168422   -0.123903000758    0.000000000000
 O    1.488671882741   -0.391246124898    0.000000000000
 H   -0.589300376794   -0.210492513945    0.000000000000
 C   -1.649437444313   -0.043404161008    0.000000000000
 N   -2.775808788318    0.144483555540    0.000000000000
