6
wb97x-d3bj/def2-tzvpd:HCl-H2CO-rSE.xyz
 C    1.986220958619    0.556616111100    0.000000000000
 H    1.302021765793    1.423952084531    0.000000000000
 H    3.069735995486    0.765519819867    0.000000000000
 O    1.568631390898   -0.573457737698    0.000000000000
CL   -1.516047641115    0.021556152779    0.000000000000
 H   -0.313841138997   -0.463755403353    0.000000000000
