5
m062x-d3/def2-qzvpd:Ar-Ar-NNO-rSE.xyz
 N    1.899759364629    1.153378370999    0.000000000000
 N    1.832081732660    0.045521250595    0.000000000000
 O    1.757256197413   -1.130667371379    0.000000000000
AR   -1.005500718659    0.016223356090    1.970875578561
AR   -1.005500718659    0.016223356090   -1.970875578561
