12
b3lyp-d3bj/def2-qzvpd:DMS-SO2-rSE.xyz
 S   -1.433156095668    0.363066711799    0.000000000000
 O   -1.517815895070   -0.391754529732   -1.231681004038
 O   -1.517815895070   -0.391754529732    1.231681004038
 S    1.449464096061    0.589923997216    0.000000000000
 C    1.592929083136   -0.554425458904   -1.389305154654
 C    1.592929083136   -0.554425458904    1.389305154654
 H    0.736381720639   -1.225163432779   -1.422165690457
 H    0.736381720639   -1.225163432779    1.422165690457
 H    1.606679679577    0.044399103685   -2.295777853198
 H    1.606679679577    0.044399103685    2.295777853198
 H    2.520368481804   -1.116616220892   -1.312466835388
 H    2.520368481804   -1.116616220892    1.312466835388
