6
revpbe-d3bj/def2-svpd:HCl-H2CO-rSE.xyz
 C    2.018134265559    0.594036445844    0.000000000000
 H    1.369804936397    1.510094138115    0.000000000000
 H    3.127767496306    0.750377307071    0.000000000000
 O    1.539210783946   -0.528658593857    0.000000000000
CL   -1.519084046514   -0.015521752398    0.000000000000
 H   -0.247360501373   -0.404802519854    0.000000000000
