5
b97m-d3bj/def2-qzvpd:Ne-Ar-NNO-rSE.xyz
 N   -1.510011394423   -0.805875722760   -1.189859589011
 N   -1.487278031792   -0.749911192856   -0.071574617759
 O   -1.461248759000   -0.690383075512    1.102600411820
AR    1.904191424615   -0.356558401674    0.021492683466
NE   -0.537813912179    2.354757133240   -0.041562797795
