7
cam-b3lyp-d3bj/def2-tzvpd:HCN-H2CO-rSE.xyz
 C    2.371884543341    0.301930663744    0.000000000000
 H    2.180750956592    1.388233566243    0.000000000000
 H    3.426733754593   -0.017776945072    0.000000000000
 O    1.477564830896   -0.496104105180    0.000000000000
 H   -0.551085571658   -0.253677708001    0.000000000000
 C   -1.601196370114   -0.018917304091    0.000000000000
 N   -2.712100714996    0.243765386350    0.000000000000
