5
m062x-d3/def2-[st]zvpd:Ar-Ar-NNO-rSE.xyz
 N    1.893579652655    1.156238604862    0.000000000000
 N    1.826870093665    0.047600782085    0.000000000000
 O    1.752576256192   -1.129191298309    0.000000000000
AR   -1.002568346106    0.015062494860    1.899548960136
AR   -1.002568346106    0.015062494860   -1.899548960136
