9
b97m-d3bj/def2-qzvpd:CH2ClF-HCCH-rSE.xyz
 C    3.108897376301    0.657999569478    0.087084644719
 H    3.595788184941    1.591878032477    0.158407057915
 C    2.569963366706   -0.404585114243    0.006080282722
 H    2.078418385749   -1.336587502267   -0.065110826413
 C   -0.604581521655    0.643487371001    0.035691306518
 F   -1.769269848006    1.336345648957    0.069723999234
CL   -0.940897706565   -1.091324032616   -0.088128100493
 H   -0.057496809696    0.808390321026    0.951614633772
 H   -0.036312043424    0.931798465215   -0.835728614923
