7
pbe0-d3/def2-svpd:HCN-H2CO-rSE.xyz
 C    2.186687024769    0.268787708526    0.000000000000
 H    1.768508583878    1.302206784837    0.000000000000
 H    3.295783831891    0.180504324238    0.000000000000
 O    1.477656366435   -0.702258064103    0.000000000000
 H   -0.513177021448   -0.386754497856    0.000000000000
 C   -1.523014969426    0.021771588000    0.000000000000
 N   -2.584131176470    0.474275413299    0.000000000000
