8
revpbe-d3bj/def2-svpd:HCCH-HCCH-rSE.xyz
 C    0.000000000000   -0.610877491176    2.173897616411
 H    0.000000000000   -1.691422620503    2.173788532149
 C   -0.000000000000    0.610877491176    2.173897616411
 H   -0.000000000000    1.691422620503    2.173788532149
 H    0.000000000000    0.000000000000   -0.481915410318
 C    0.000000000000    0.000000000000   -1.563197861872
 C    0.000000000000    0.000000000000   -2.784673646269
 H    0.000000000000    0.000000000000   -3.864753456817
