6
pbe0-d3/def2-svpd:HF-H2CO-rSE.xyz
 C    1.442068703050    0.495055875438    0.000000000000
 H    0.941447000897    1.487951901497    0.000000000000
 H    2.552587991650    0.482456772942    0.000000000000
 O    0.809102925271   -0.530805464235    0.000000000000
 H   -0.850840850216   -0.287094941131    0.000000000000
 F   -1.732263158358    0.044900187134    0.000000000000
