7
b3lyp-d3bj/def2-svpd:Ne-C2H4-rSE.xyz
 C    0.000000000000   -0.666556222603   -1.440370111504
 C   -0.000000000000    0.666556222603   -1.440370111504
 H    0.000000000000   -1.239269548753   -0.510744285070
 H    0.000000000000   -1.239130791759   -2.370278358786
 H   -0.000000000000    1.239130791759   -2.370278358786
 H   -0.000000000000    1.239269548753   -0.510744285070
NE    0.000000000000    0.000000000000    2.019564185164
