5
b97m-d3bj/def2-tzvpd:Ar-Ar-NNO-rSE.xyz
 N    1.909052705495    1.161731608693    0.000000000000
 N    1.838024262430    0.043576322606    0.000000000000
 O    1.759797166750   -1.130138573985    0.000000000000
AR   -1.008678602356    0.014994774403    1.875429648839
AR   -1.008678602356    0.014994774403   -1.875429648839
