6
m062x-d3/def2-svpd:HF-H2CO-rSE.xyz
 C    1.384607864639    0.460106614622    0.000000000000
 H    0.819393139673    1.413855592926    0.000000000000
 H    2.490065082484    0.511952086259    0.000000000000
 O    0.814993199338   -0.600947955736    0.000000000000
 H   -0.864275024363   -0.313968309054    0.000000000000
 F   -1.690424062204    0.129820373905    0.000000000000
