8
pbe0-d3/def2-tzvpd:HF-HF-NH3-rSE.xyz
 N   -1.563844376885    0.707271481383    0.000202327894
 H   -0.828905911575    1.409381608869   -0.002332042667
 H   -2.138828242895    0.850810632243    0.821586113899
 H   -2.140917413117    0.847013685378   -0.820367280738
 F   -0.096317873650   -1.294202060672    0.003228567107
 H   -0.791771626690   -0.557946996257    0.002216765916
 F    1.504993578955    0.648075605390   -0.003393416030
 H    1.074227894064   -0.196275107946   -0.000807221418
