7
revpbe-d3bj/def2-qzvpd:HCN-H2CO-rSE.xyz
 C    2.171141907518    0.261308602169    0.000000000000
 H    1.694743161753    1.270196707708    0.000000000000
 H    3.285105693373    0.239243918300    0.000000000000
 O    1.514056724216   -0.760120966963    0.000000000000
 H   -0.566372189278   -0.441600223771    0.000000000000
 C   -1.545704019309    0.024694444283    0.000000000000
 N   -2.583038191692    0.546296985895    0.000000000000
