5
pbe0-d3/def2-qzvpd:Ne-Ar-NNO-rSE.xyz
 N   -1.598415968022   -0.803254203373   -1.171391049772
 N   -1.560247661913   -0.740559564908   -0.056542004030
 O   -1.518623476000   -0.674013087458    1.115228128916
AR    1.960216955613   -0.319240420693    0.013999054161
NE   -0.490869923648    2.258680172854   -0.060151578979
