12
m062x-d3/def2-[st]zvpd:DMS-SO2-rSE.xyz
 S   -1.418321937911    0.372802855594    0.000000000000
 O   -1.489629533191   -0.378870986726   -1.221489703906
 O   -1.489629533191   -0.378870986726    1.221489703906
 S    1.428697832204    0.582364834387    0.000000000000
 C    1.569779352168   -0.569440369746   -1.371516954381
 C    1.569779352168   -0.569440369746    1.371516954381
 H    0.744376289511   -1.281283382319   -1.352936918343
 H    0.744376289511   -1.281283382319    1.352936918343
 H    1.515290352491    0.010671406277   -2.290109685861
 H    1.515290352491    0.010671406277    2.290109685861
 H    2.526159669607   -1.086990868009   -1.323048038035
 H    2.526159669607   -1.086990868009    1.323048038035
