5
wb97x-d3bj/def2-qzvpd:Ne-Ar-NNO-rSE.xyz
 N   -1.578795482216   -0.753033632226   -1.148887452753
 N   -1.527400226957   -0.701440368846   -0.035951687218
 O   -1.470563256247   -0.645727220337    1.142048703501
AR    1.894613750505   -0.363862572655   -0.021755511946
NE   -0.434937325226    2.262668987152   -0.040324204198
