6
revpbe-d3bj/def2-tzvpd:HF-H2CO-rSE.xyz
 C    1.472319532802    0.506985709319    0.000000000000
 H    0.973255362468    1.502044550780    0.000000000000
 H    2.585106582608    0.495132171970    0.000000000000
 O    0.834060526052   -0.531446856836    0.000000000000
 H   -0.870433680084   -0.272991659285    0.000000000000
 F   -1.774755614821    0.035736778251    0.000000000000
