7
m062x-d3/def2-svpd:Ar-C2H4-rSE.xyz
 C    0.000000000000   -0.664801636453   -2.181982498770
 C   -0.000000000000    0.664801636453   -2.181982498770
 H    0.000000000000   -1.234247215538   -1.251879540677
 H    0.000000000000   -1.233219250076   -3.112701938936
 H   -0.000000000000    1.233219250076   -3.112701938936
 H   -0.000000000000    1.234247215538   -1.251879540677
AR    0.000000000000    0.000000000000    1.530565600201
