5
m062x-d3/def2-tzvpd:Ar-Ar-NNO-rSE.xyz
 N    1.896539922571    1.157303402855    0.000000000000
 N    1.823738783957    0.049057320522    0.000000000000
 O    1.743025414088   -1.127310672620    0.000000000000
AR   -1.000627020605    0.014244389146    1.902048375464
AR   -1.000627020605    0.014244389146   -1.902048375464
