5
b97m-d3bj/def2-svpd:Ne-Ne-NNO-rSE.xyz
 N    1.280492744316   -1.121716210023    0.000000000000
 N    1.278722449113    0.005499662294    0.000000000000
 O    1.270812600682    1.183675837248    0.000000000000
NE   -1.404616402431   -0.082589493881    1.560934555765
NE   -1.404616402431   -0.082589493881   -1.560934555765
