5
b3lyp-d3bj/def2-svpd:Ne-Ar-NNO-rSE.xyz
 N   -1.517425388913   -0.707378812548   -1.137834320998
 N   -1.516865842889   -0.683986242980   -0.009244481721
 O   -1.510717612178   -0.656125652570    1.175685794124
AR    1.890166970872   -0.355129105614   -0.043199152384
NE   -0.444286574750    2.209328457154   -0.050820382401
