5
b3lyp-d3bj/def2-[st]zvpd:Ne-Ne-NNO-rSE.xyz
 N    1.372278632060   -1.142742159356    0.000000000000
 N    1.293241747779   -0.024889347211    0.000000000000
 O    1.208371702360    1.154918988392    0.000000000000
NE   -1.416867597148   -0.053080069186    1.617968939864
NE   -1.416867597148   -0.053080069186   -1.617968939864
