7
revpbe-d3bj/def2-tzvpd:Ar-C2H4-rSE.xyz
 C    0.000000000000   -0.668288394528   -2.340833209874
 C   -0.000000000000    0.668288394528   -2.340833209874
 H    0.000000000000   -1.242523956677   -1.411658002906
 H    0.000000000000   -1.242255377261   -3.270527091952
 H   -0.000000000000    1.242255377261   -3.270527091952
 H   -0.000000000000    1.242523956677   -1.411658002906
AR    0.000000000000    0.000000000000    1.641985252034
