6
b3lyp-d3bj/def2-qzvpd:CS2-OCS-rSE.xyz
 S    0.823702801967   -1.765452092994    0.000000000000
 C    1.617980247375   -0.432417152030    0.000000000000
 S    2.403709803371    0.905334977832    0.000000000000
 C   -2.283507753072    0.078489251923    0.000000000000
 O   -2.810521491432   -0.948913205518    0.000000000000
 S   -1.571580517654    1.467676143758    0.000000000000
