7
pbe0-d3/def2-[st]zvpd:Ar-C2H4-rSE.xyz
 C    0.000000000000   -0.661682825575   -2.244326011828
 C   -0.000000000000    0.661682825575   -2.244326011828
 H    0.000000000000   -1.230598626595   -1.320651784020
 H    0.000000000000   -1.231412889575   -3.167524052745
 H   -0.000000000000    1.231412889575   -3.167524052745
 H   -0.000000000000    1.230598626595   -1.320651784020
AR    0.000000000000    0.000000000000    1.574240855552
