7
wb97x-d3bj/def2-tzvpd:Ne-C2H4-rSE.xyz
 C    0.000000000000   -0.662353924917   -1.464493164766
 C   -0.000000000000    0.662353924917   -1.464493164766
 H    0.000000000000   -1.231284098762   -0.540235633956
 H    0.000000000000   -1.230940171890   -2.389087771738
 H   -0.000000000000    1.230940171890   -2.389087771738
 H   -0.000000000000    1.231284098762   -0.540235633956
NE   -0.000000000000    0.000000000000    2.053392507572
