8
b97m-d3bj/def2-qzvpd:HCCH-HCCH-rSE.xyz
 C    0.000000000000   -0.596969108643    2.156340561378
 H    0.000000000000   -1.652670483227    2.157817726768
 C   -0.000000000000    0.596969108643    2.156340561378
 H   -0.000000000000    1.652670483227    2.157817726768
 H    0.000000000000    0.000000000000   -0.501103052017
 C    0.000000000000    0.000000000000   -1.559345519156
 C    0.000000000000    0.000000000000   -2.753791994859
 H    0.000000000000    0.000000000000   -3.809098228974
