5
m062x-d3/def2-svpd:Ne-Ar-NNO-rSE.xyz
 N   -1.435684488290   -0.653798490234   -1.147585870403
 N   -1.392442147491   -0.609961024131   -0.031620146153
 O   -1.337850268587   -0.558306469191    1.144720284389
AR    1.780101665498   -0.400901316273   -0.021844222715
NE   -0.506983503357    2.133184040045   -0.046229819395
