8
m062x-d3/def2-[st]zvpd:HF-HF-NH3-rSE.xyz
 N   -1.540440266762    0.707535851612    0.000036587971
 H   -0.789207554622    1.393652901396   -0.003759766690
 H   -2.111354503104    0.864498167772    0.822452638810
 H   -2.116227144038    0.860742380734   -0.819673790451
 F   -0.087764307552   -1.323850007566    0.002033163977
 H   -0.774655941212   -0.593021620118    0.001400431732
 F    1.472270413134    0.678223456030   -0.002058476512
 H    1.095683508873   -0.185984892756   -0.000450715554
