8
wb97x-d3bj/def2-qzvpd:HCCH-HCCH-rSE.xyz
 C    0.000000000000   -0.597660971078    2.172557684522
 H    0.000000000000   -1.663072054822    2.174649682281
 C   -0.000000000000    0.597660971078    2.172557684522
 H   -0.000000000000    1.663072054822    2.174649682281
 H    0.000000000000    0.000000000000   -0.507596822146
 C    0.000000000000    0.000000000000   -1.574972110224
 C    0.000000000000    0.000000000000   -2.770658318505
 H    0.000000000000    0.000000000000   -3.835569814992
