6
m062x-d3/def2-svpd:HCl-H2CO-rSE.xyz
 C    1.933403159087    0.516071006842    0.000000000000
 H    1.218851080678    1.366048630666    0.000000000000
 H    3.015476749146    0.752127511715    0.000000000000
 O    1.545139637136   -0.622285575324    0.000000000000
CL   -1.483378495260    0.061258267691    0.000000000000
 H   -0.308220156858   -0.512320786563    0.000000000000
