8
b3lyp-d3bj/def2-qzvpd:HF-HF-NH3-rSE.xyz
 N   -1.608564758148    0.727023628961    0.000363205606
 H   -0.890933305556    1.444784455256   -0.002145694311
 H   -2.186467611671    0.858375256525    0.820972926966
 H   -2.188496933647    0.854677338244   -0.819398447181
 F   -0.111187768167   -1.290196837957    0.003074389123
 H   -0.802131609639   -0.562435705828    0.002286696456
 F    1.560148384844    0.627331292093   -0.003383939805
 H    1.103788195132   -0.201313951512   -0.000926680651
