7
b3lyp-d3bj/def2-tzvpd:Ne-C2H4-rSE.xyz
 C    0.000000000000   -0.662409080747   -1.476466696911
 C   -0.000000000000    0.662409080747   -1.476466696911
 H    0.000000000000   -1.231970002552   -0.555098159337
 H    0.000000000000   -1.231976231310   -2.397999205521
 H   -0.000000000000    1.231976231310   -2.397999205521
 H   -0.000000000000    1.231970002552   -0.555098159337
NE    0.000000000000    0.000000000000    2.070163084392
