7
b97m-d3bj/def2-tzvpd:Ne-C2H4-rSE.xyz
 C    0.000000000000   -0.660287825420   -1.503697773951
 C   -0.000000000000    0.660287825420   -1.503697773951
 H    0.000000000000   -1.228366345170   -0.586936004941
 H    0.000000000000   -1.228342098555   -2.420586649799
 H   -0.000000000000    1.228342098555   -2.420586649799
 H   -0.000000000000    1.228366345170   -0.586936004941
NE    0.000000000000    0.000000000000    2.108339924303
