5
cam-b3lyp-d3bj/def2-[st]zvpd:Ar-Ar-NNO-rSE.xyz
 N    1.891022198301    1.157055818856    0.000000000000
 N    1.823263407460    0.046229982096    0.000000000000
 O    1.746060609937   -1.129408880914    0.000000000000
AR   -1.000184427692    0.015203028531    1.855753163002
AR   -1.000184427692    0.015203028531   -1.855753163002
