6
wb97x-d3bj/def2-qzvpd:CS2-OCS-rSE.xyz
 S    0.918503349516   -1.684694000294    0.000000000000
 C    1.624114492136   -0.309780674859    0.000000000000
 S    2.321552598066    1.068337614536    0.000000000000
 C   -2.261173114307   -0.090160440369    0.000000000000
 O   -2.720044298489   -1.146066829404    0.000000000000
 S   -1.640172740053    1.339817006785    0.000000000000
