6
wb97x-d3bj/def2-tzvpd:HF-H2CO-rSE.xyz
 C    1.431158026418    0.486295099540    0.000000000000
 H    0.905659818362    1.456297357230    0.000000000000
 H    2.533468058577    0.502000826296    0.000000000000
 O    0.826182493818   -0.557493813631    0.000000000000
 H   -0.865751461034   -0.289812805279    0.000000000000
 F   -1.736047374750    0.073689531346    0.000000000000
