6
pbe0-d3/def2-[st]zvpd:HCl-H2CO-rSE.xyz
 C    1.981373545385    0.568324079481    0.000000000000
 H    1.317592421078    1.452160513564    0.000000000000
 H    3.069834648608    0.753048237719    0.000000000000
 O    1.539740337696   -0.549246461323    0.000000000000
CL   -1.502775173172    0.005191452507    0.000000000000
 H   -0.273790545639   -0.435335901091    0.000000000000
