6
b3lyp-d3bj/def2-qzvpd:HF-H2CO-rSE.xyz
 C    1.452771359810    0.506519350045    0.000000000000
 H    0.955848079956    1.488539403698    0.000000000000
 H    2.552769168969    0.496369946632    0.000000000000
 O    0.822590374472   -0.520629720041    0.000000000000
 H   -0.862037358418   -0.286738463766    0.000000000000
 F   -1.750558102323    0.028304304675    0.000000000000
