7
b3lyp-d3bj/def2-[st]zvpd:HCN-H2CO-rSE.xyz
 C    2.256436603391    0.281598361091    0.000000000000
 H    1.907914563553    1.330129930307    0.000000000000
 H    3.348981642784    0.124314930930    0.000000000000
 O    1.487516133756   -0.643467103918    0.000000000000
 H   -0.545542928928   -0.351933142936    0.000000000000
 C   -1.560259930321    0.007178027531    0.000000000000
 N   -2.634781005120    0.408177933957    0.000000000000
