8
b3lyp-d3bj/def2-[st]zvpd:HCCH-HCCH-rSE.xyz
 C    0.000000000000   -0.598699289748    2.166599677612
 H    0.000000000000   -1.661857270007    2.168210571329
 C   -0.000000000000    0.598699289748    2.166599677612
 H   -0.000000000000    1.661857270007    2.168210571329
 H    0.000000000000    0.000000000000   -0.502677177634
 C    0.000000000000    0.000000000000   -1.567920661147
 C    0.000000000000    0.000000000000   -2.765726955268
 H    0.000000000000    0.000000000000   -3.828406595803
