6
b97m-d3bj/def2-tzvpd:HF-H2CO-rSE.xyz
 C    1.436824278309    0.483547322011    0.000000000000
 H    0.917885474727    1.452321859919    0.000000000000
 H    2.535054127911    0.509227035111    0.000000000000
 O    0.837583162046   -0.557151627798    0.000000000000
 H   -0.887258554066   -0.290672649057    0.000000000000
 F   -1.748816456010    0.075010196067    0.000000000000
