5
m062x-d3/def2-svpd:Ne-Ne-NNO-rSE.xyz
 N    1.253425264417   -1.138079325890    0.000000000000
 N    1.183536435405   -0.022697388224    0.000000000000
 O    1.100665751498    1.153276453535    0.000000000000
NE   -1.293739265756   -0.054823627265    1.481669839221
NE   -1.293739265756   -0.054823627265   -1.481669839221
