5
revpbe-d3bj/def2-[st]zvpd:Ne-Ar-NNO-rSE.xyz
 N   -1.654838965097   -0.792576265483   -1.163295443645
 N   -1.617396979598   -0.755651500192   -0.024319609149
 O   -1.575733478603   -0.716065987355    1.167212212414
AR    2.005288212612   -0.400326087275   -0.025425765958
NE   -0.455722823157    2.457496251046   -0.051175544255
