8
pbe0-d3/def2-qzvpd:HCCH-HCCH-rSE.xyz
 C    0.000000000000   -0.598164274584    2.169965430910
 H    0.000000000000   -1.662467510104    2.172530714611
 C   -0.000000000000    0.598164274584    2.169965430910
 H   -0.000000000000    1.662467510104    2.172530714611
 H    0.000000000000    0.000000000000   -0.505135198892
 C    0.000000000000    0.000000000000   -1.571960672375
 C    0.000000000000    0.000000000000   -2.768604541332
 H    0.000000000000    0.000000000000   -3.832373111088
