8
cam-b3lyp-d3bj/def2-[st]zvpd:HF-HF-NH3-rSE.xyz
 N   -1.563177080937    0.707461477058    0.000171707870
 H   -0.822409180834    1.403555716995   -0.003225433446
 H   -2.135671600108    0.846735604830    0.823941832700
 H   -2.139942203402    0.843191803618   -0.821198352763
 F   -0.090902657277   -1.293311647250    0.002226784178
 H   -0.793389224766   -0.559481165606    0.001384178805
 F    1.498579688682    0.648242966836   -0.002374086421
 H    1.074771161385   -0.203598006258   -0.000511215577
