5
wb97x-d3bj/def2-[st]zvpd:Ne-Ar-NNO-rSE.xyz
 N   -1.578463812026   -0.752561102014   -1.149937369777
 N   -1.525690129803   -0.701399203858   -0.036369834363
 O   -1.467072321725   -0.646008505065    1.141968321644
AR    1.889152547995   -0.356145775525   -0.021016183408
NE   -0.428244072825    2.247109316229   -0.040709460729
