9
b97m-d3bj/def2-svpd:CH2ClF-HCCH-rSE.xyz
 C    3.114670069502    0.675649410502    0.085522354622
 H    3.632391723307    1.606238953070    0.149424638864
 C    2.542396150653   -0.384469234249    0.012704945417
 H    2.014100889493   -1.309684715019   -0.050699057288
 C   -0.602980491606    0.641087696743    0.029001358529
 F   -1.770051898721    1.330096198018    0.062508707929
CL   -0.933217978465   -1.101479606118   -0.083250151233
 H   -0.046168305675    0.817388390706    0.949579051299
 H   -0.031209949059    0.930618402729   -0.852980314992
