5
pbe0-d3/def2-qzvpd:Ar-Ar-NNO-rSE.xyz
 N    1.951057680460    1.212900675496    0.000000000000
 N    1.910912494579    0.096372773324    0.000000000000
 O    1.866628023391   -1.077157714480    0.000000000000
AR   -1.050187744870   -0.013823091049    1.957179300242
AR   -1.050187744870   -0.013823091049   -1.957179300242
