7
b3lyp-d3bj/def2-qzvpd:HCN-H2CO-rSE.xyz
 C    2.296230576106    0.251923165454    0.000000000000
 H    2.008708483927    1.317087452575    0.000000000000
 H    3.376474050098    0.032602735953    0.000000000000
 O    1.476501086187   -0.626965315890    0.000000000000
 H   -0.552710532679   -0.313776546518    0.000000000000
 C   -1.572801789069    0.025261202747    0.000000000000
 N   -2.654270090442    0.404055893531    0.000000000000
