7
m062x-d3/def2-qzvpd:Ne-C2H4-rSE.xyz
 C    0.000000000000   -0.660686756517   -1.525010071533
 C   -0.000000000000    0.660686756517   -1.525010071533
 H    0.000000000000   -1.227395498156   -0.604412453496
 H    0.000000000000   -1.226783237523   -2.445994606148
 H   -0.000000000000    1.226783237523   -2.445994606148
 H   -0.000000000000    1.227395498156   -0.604412453496
NE   -0.000000000000    0.000000000000    2.138247984059
