6
m062x-d3/def2-[st]zvpd:HF-H2CO-rSE.xyz
 C    1.368498853519    0.452927041237    0.000000000000
 H    0.790907901058    1.389790426847    0.000000000000
 H    2.465778666455    0.523414610929    0.000000000000
 O    0.819376137095   -0.616687909817    0.000000000000
 H   -0.861294223792   -0.311029594367    0.000000000000
 F   -1.681297827444    0.148119472336    0.000000000000
