7
pbe0-d3/def2-svpd:Ar-C2H4-rSE.xyz
 C    0.000000000000   -0.665500612436   -2.246517361923
 C   -0.000000000000    0.665500612436   -2.246517361923
 H    0.000000000000   -1.237291751588   -1.315559057542
 H    0.000000000000   -1.238287630371   -3.176916633444
 H   -0.000000000000    1.238287630371   -3.176916633444
 H   -0.000000000000    1.237291751588   -1.315559057542
AR   -0.000000000000    0.000000000000    1.575773782243
