5
cam-b3lyp-d3bj/def2-tzvpd:Ar-Ar-NNO-rSE.xyz
 N    1.931941552011    1.160660384907    0.000000000000
 N    1.854653509050    0.050409119529    0.000000000000
 O    1.768968728255   -1.124715805468    0.000000000000
AR   -1.017437753728    0.012900098843    1.906570288207
AR   -1.017437753728    0.012900098843   -1.906570288207
