5
revpbe-d3bj/def2-qzvpd:Ne-Ar-NNO-rSE.xyz
 N   -1.744193531971   -0.818380309608   -1.030262455619
 N   -1.618483167834   -0.768069061327    0.101172617984
 O   -1.484810312404   -0.714314131375    1.284929095434
AR    2.008788949261   -0.370493331856   -0.184499518690
NE   -0.472116893603    2.423233859089   -0.008462047003
