8
b3lyp-d3bj/def2-tzvpd:HF-HF-NH3-rSE.xyz
 N   -1.599620699347    0.722448638851    0.000283791555
 H   -0.879855011239    1.440950135385   -0.002228167271
 H   -2.178330009987    0.852960319963    0.822728002816
 H   -2.180284277685    0.849195498275   -0.821370440279
 F   -0.110779974231   -1.289500728524    0.003113287248
 H   -0.805347184720   -0.552059653865    0.002264213021
 F    1.552201792071    0.630396141744   -0.003350239799
 H    1.097416432545   -0.204289834219   -0.000869940062
