12
revpbe-d3bj/def2-[st]zvpd:DMS-SO2-rSE.xyz
 S   -1.410330961627    0.370563119629    0.000000000000
 O   -1.521648858850   -0.397171846097   -1.254709319563
 O   -1.521648858850   -0.397171846097    1.254709319563
 S    1.436007261450    0.590929265115    0.000000000000
 C    1.586948756049   -0.557728229709   -1.393091727192
 C    1.586948756049   -0.557728229709    1.393091727192
 H    0.725112007076   -1.239282990925   -1.420652196000
 H    0.725112007076   -1.239282990925    1.420652196000
 H    1.593074792927    0.048730598814   -2.307180173809
 H    1.593074792927    0.048730598814    2.307180173809
 H    2.528682554042   -1.116378752546   -1.314130026449
 H    2.528682554042   -1.116378752546    1.314130026449
