6
revpbe-d3bj/def2-svpd:HF-H2CO-rSE.xyz
 C    1.475241238209    0.509231616900    0.000000000000
 H    0.979723748792    1.515519918318    0.000000000000
 H    2.595551312528    0.488986686798    0.000000000000
 O    0.827370724371   -0.525775228354    0.000000000000
 H   -0.867535842843   -0.276601759859    0.000000000000
 F   -1.772019786627    0.029345873054    0.000000000000
