5
b97m-d3bj/def2-[st]zvpd:Ne-Ar-NNO-rSE.xyz
 N   -1.578462469192   -0.769964624001   -1.155231339357
 N   -1.515315315345   -0.712781441543   -0.038021873758
 O   -1.446843662341   -0.652066719902    1.134821403885
AR    1.876972399106   -0.384556538477   -0.016462769582
NE   -0.427349034597    2.328907812636   -0.039228173354
