7
cam-b3lyp-d3bj/def2-[st]zvpd:Ar-C2H4-rSE.xyz
 C    0.000000000000   -0.659748239961   -2.181499131923
 C   -0.000000000000    0.659748239961   -2.181499131923
 H    0.000000000000   -1.228125996561   -1.260372982500
 H    0.000000000000   -1.227722434187   -3.103109760662
 H   -0.000000000000    1.227722434187   -3.103109760662
 H   -0.000000000000    1.228125996561   -1.260372982500
AR   -0.000000000000    0.000000000000    1.530219888273
