6
pbe0-d3/def2-qzvpd:CS2-OCS-rSE.xyz
 S    0.993408824672   -1.698918052851    0.000000000000
 C    1.680363798361   -0.311661013108    0.000000000000
 S    2.362550536114    1.077468213062    0.000000000000
 C   -2.320155684886   -0.091611223926    0.000000000000
 O   -2.751041646043   -1.159672087975    0.000000000000
 S   -1.739543001653    1.352967130323    0.000000000000
