5
wb97x-d3bj/def2-[st]zvpd:Ar-Ar-NNO-rSE.xyz
 N    1.913737699475    1.157068551372    0.000000000000
 N    1.853733490250    0.042722124218    0.000000000000
 O    1.786141974024   -1.136366988501    0.000000000000
AR   -1.017523979995    0.017207874380    1.881961728627
AR   -1.017523979995    0.017207874380   -1.881961728627
