7
m062x-d3/def2-[st]zvpd:HCN-H2CO-rSE.xyz
 C    2.441787149257    0.302192021221    0.000000000000
 H    2.322681279687    1.397983259973    0.000000000000
 H    3.471535960919   -0.089468759577    0.000000000000
 O    1.495871489178   -0.433471617806    0.000000000000
 H   -0.588414075208   -0.230784265109    0.000000000000
 C   -1.644875555336   -0.033436715535    0.000000000000
 N   -2.766236514139    0.187252765974    0.000000000000
