8
b3lyp-d3bj/def2-qzvpd:HCCH-HCCH-rSE.xyz
 C    0.000000000000   -0.597833091567    2.165567796863
 H    0.000000000000   -1.659525879649    2.167342143130
 C   -0.000000000000    0.597833091567    2.165567796863
 H   -0.000000000000    1.659525879649    2.167342143130
 H    0.000000000000    0.000000000000   -0.503913733387
 C    0.000000000000    0.000000000000   -1.567741521542
 C    0.000000000000    0.000000000000   -2.763872032825
 H    0.000000000000    0.000000000000   -3.825079557395
