8
revpbe-d3bj/def2-tzvpd:HF-HF-NH3-rSE.xyz
 N   -1.631806931043    0.729096985844    0.000284013147
 H   -0.933876127430    1.479155628775   -0.002299945330
 H   -2.220222645140    0.849538937858    0.827423289630
 H   -2.222295115172    0.845783152502   -0.825914643252
 F   -0.132942352696   -1.280607489217    0.002986293480
 H   -0.831034281408   -0.518674649135    0.002117811580
 F    1.606502286359    0.613215046555   -0.003221707283
 H    1.102402670385   -0.205187571004   -0.000834930051
