12
revpbe-d3bj/def2-tzvpd:DMS-SO2-rSE.xyz
 S   -1.413699724790    0.357359682825    0.000000000000
 O   -1.517970896877   -0.411321812956   -1.254656505381
 O   -1.517970896877   -0.411321812956    1.254656505381
 S    1.430532162374    0.604296906968    0.000000000000
 C    1.592050874783   -0.542875538220   -1.393061386600
 C    1.592050874783   -0.542875538220    1.393061386600
 H    0.736636515973   -1.232486406333   -1.420506058749
 H    0.736636515973   -1.232486406333    1.420506058749
 H    1.592527292830    0.063581867318   -2.307156731666
 H    1.592527292830    0.063581867318    2.307156731666
 H    2.538864162323   -1.092909422887   -1.314286318504
 H    2.538864162323   -1.092909422887    1.314286318504
