9
b3lyp-d3bj/def2-svpd:CH2ClF-HCCH-rSE.xyz
 C    3.142604926512    0.675427778112    0.082200535292
 H    3.651395287178    1.617597193388    0.146671956708
 C    2.581707198549   -0.393500111727    0.009052499784
 H    2.064979723909   -1.331745320327   -0.055303944396
 C   -0.607990348953    0.649099522774    0.028664718462
 F   -1.774677528573    1.350667311317    0.068601476131
CL   -0.953886669726   -1.111934517778   -0.083639285938
 H   -0.045192586882    0.817030460562    0.952977819826
 H   -0.038756054739    0.931425100324   -0.863324008918
