6
b97m-d3bj/def2-svpd:CS2-OCS-rSE.xyz
 S    0.880283865931   -1.675532243112    0.000000000000
 C    1.604398661262   -0.301360656152    0.000000000000
 S    2.318389172326    1.077407869221    0.000000000000
 C   -2.236912680833   -0.099757508945    0.000000000000
 O   -2.703451527010   -1.159388810274    0.000000000000
 S   -1.608796539164    1.328691464304    0.000000000000
