5
wb97x-d3bj/def2-qzvpd:Ar-Ar-NNO-rSE.xyz
 N    1.910210219573    1.155783863788    0.000000000000
 N    1.851810398493    0.042042340793    0.000000000000
 O    1.786279640724   -1.136767589571    0.000000000000
AR   -1.016596572951    0.017632226111    1.894386069045
AR   -1.016596572951    0.017632226111   -1.894386069045
