5
wb97x-d3bj/def2-[st]zvpd:Ne-Ne-NNO-rSE.xyz
 N    1.380220315987   -1.138652327423    0.000000000000
 N    1.302074960643   -0.025371595882    0.000000000000
 O    1.217604821914    1.152766859597    0.000000000000
NE   -1.426435790844   -0.053482574806    1.572144712346
NE   -1.426435790844   -0.053482574806   -1.572144712346
