9
pbe0-d3/def2-[st]zvpd:CH2ClF-HCCH-rSE.xyz
 C    3.175936946762    0.662180013549    0.065610523654
 H    3.683705443554    1.597331878828    0.114954420290
 C    2.615684950073   -0.395265913665    0.009838232594
 H    2.105141776977   -1.329746719680   -0.039741993097
 C   -0.629210621303    0.640990012910    0.042058361855
 F   -1.790848835155    1.339771386385    0.027994323991
CL   -0.961644513979   -1.097250184637   -0.062229156113
 H   -0.104959189584    0.822341418483    0.979142179678
 H   -0.026221246691    0.915593923706   -0.822023284985
