7
m062x-d3/def2-svpd:Ne-C2H4-rSE.xyz
 C    0.000000000000   -0.664761270406   -1.465120963565
 C   -0.000000000000    0.664761270406   -1.465120963565
 H    0.000000000000   -1.234347151153   -0.535148158082
 H    0.000000000000   -1.233272687219   -2.395822691859
 H   -0.000000000000    1.233272687219   -2.395822691859
 H   -0.000000000000    1.234347151153   -0.535148158082
NE   -0.000000000000    0.000000000000    2.054312247339
