6
m062x-d3/def2-qzvpd:HCl-H2CO-rSE.xyz
 C    1.921829075124    0.556538353432    0.000000000000
 H    1.182195651347    1.371749729780    0.000000000000
 H    2.984996754819    0.834611624097    0.000000000000
 O    1.580894061736   -0.593188292409    0.000000000000
CL   -1.493414946021    0.031720024713    0.000000000000
 H   -0.322484569940   -0.519240153670    0.000000000000
