8
m062x-d3/def2-tzvpd:HF-HF-NH3-rSE.xyz
 N   -1.540486563637    0.707245609961    0.000076490164
 H   -0.789225021487    1.393326141332   -0.002619944484
 H   -2.112578728801    0.864248395157    0.821650885162
 H   -2.115157452276    0.860618754215   -0.820384954929
 F   -0.087482521135   -1.323799771576    0.002982267774
 H   -0.774661382783   -0.593252730165    0.002008338392
 F    1.472043020133    0.678427048420   -0.003032973041
 H    1.095478851706   -0.185805796298   -0.000761265641
