12
b97m-d3bj/def2-tzvpd:DMS-SO2-rSE.xyz
 S   -1.397034260771    0.353472066075    0.000000000000
 O   -1.475153936815   -0.406470611211   -1.228746612676
 O   -1.475153936815   -0.406470611211    1.228746612676
 S    1.408847291245    0.600224576802    0.000000000000
 C    1.552398353077   -0.538753526632   -1.367636644128
 C    1.552398353077   -0.538753526632    1.367636644128
 H    0.704699658058   -1.216592946243   -1.386994147028
 H    0.704699658058   -1.216592946243    1.386994147028
 H    1.552719762493    0.045331996377   -2.279422268350
 H    1.552719762493    0.045331996377    2.279422268350
 H    2.482825517642   -1.090365183907   -1.293007115877
 H    2.482825517642   -1.090365183907    1.293007115877
