7
b97m-d3bj/def2-svpd:Ne-C2H4-rSE.xyz
 C    0.000000000000   -0.664412625222   -1.487724114440
 C   -0.000000000000    0.664412625222   -1.487724114440
 H    0.000000000000   -1.235431246046   -0.562666918308
 H    0.000000000000   -1.235668952128   -2.412776122129
 H   -0.000000000000    1.235668952128   -2.412776122129
 H   -0.000000000000    1.235431246046   -0.562666918308
NE   -0.000000000000    0.000000000000    2.085929998303
