8
m062x-d3/def2-qzvpd:HF-HF-NH3-rSE.xyz
 N   -1.543653449612    0.702199900584    0.000914428942
 H   -0.791190063657    1.383835516342   -0.001530172219
 H   -2.114255601140    0.861977428878    0.820491295099
 H   -2.116707046638    0.858805552051   -0.817563326301
 F   -0.077145865627   -1.328821892558    0.002699538989
 H   -0.765602802575   -0.610495320792    0.002301993582
 F    1.463721385094    0.688325261573   -0.003502118094
 H    1.097628665467   -0.176800256953   -0.001275852274
