5
m062x-d3/def2-tzvpd:Ne-Ne-NNO-rSE.xyz
 N    1.440825142175   -1.101024608357    0.000000000000
 N    1.328519017854    0.003864898797    0.000000000000
 O    1.207556972713    1.176767729707    0.000000000000
NE   -1.452901731390   -0.086499965127    1.556371564391
NE   -1.452901731390   -0.086499965127   -1.556371564391
