6
m062x-d3/def2-qzvpd:CS2-OCS-rSE.xyz
 S    0.900359488454   -1.674946787212    0.000000000000
 C    1.612666169041   -0.302294363273    0.000000000000
 S    2.316938586357    1.073614126277    0.000000000000
 C   -2.246051352363   -0.101542474101    0.000000000000
 O   -2.701940604153   -1.154668364378    0.000000000000
 S   -1.627850484967    1.330558610153    0.000000000000
