12
b97m-d3bj/def2-qzvpd:DMS-SO2-rSE.xyz
 S   -1.395925539730    0.364297261344    0.000000000000
 O   -1.479099585906   -0.392636717358   -1.225939324099
 O   -1.479099585906   -0.392636717358    1.225939324099
 S    1.414456910416    0.587168624222    0.000000000000
 C    1.549751339988   -0.551200156943   -1.367221236741
 C    1.549751339988   -0.551200156943    1.367221236741
 H    0.699043935486   -1.222525476717   -1.386406880494
 H    0.699043935486   -1.222525476717    1.386406880494
 H    1.553459286284    0.032719249309   -2.277133623873
 H    1.553459286284    0.032719249309    2.277133623873
 H    2.475313816795   -1.107789861852   -1.293159666188
 H    2.475313816795   -1.107789861852    1.293159666188
