8
b3lyp-d3bj/def2-svpd:HCCH-HCCH-rSE.xyz
 C    0.000000000000   -0.604596769830    2.146134259290
 H    0.000000000000   -1.677413749839    2.146723549316
 C   -0.000000000000    0.604596769830    2.146134259290
 H   -0.000000000000    1.677413749839    2.146723549316
 H    0.000000000000    0.000000000000   -0.468382743503
 C    0.000000000000    0.000000000000   -1.541747486454
 C    0.000000000000    0.000000000000   -2.750696798937
 H    0.000000000000    0.000000000000   -3.822971529815
