6
revpbe-d3bj/def2-qzvpd:CS2-OCS-rSE.xyz
 S    1.020137466607   -1.710980173415    0.000000000000
 C    1.682663428449   -0.293986457902    0.000000000000
 S    2.338141073386    1.126340415237    0.000000000000
 C   -2.325477316963   -0.115410711732    0.000000000000
 O   -2.767907371359   -1.199540345847    0.000000000000
 S   -1.732290393701    1.338401105658    0.000000000000
