5
wb97x-d3bj/def2-qzvpd:Ne-Ne-NNO-rSE.xyz
 N    1.382793545360   -1.137998162310    0.000000000000
 N    1.304820644453   -0.025379542498    0.000000000000
 O    1.220766566908    1.152406113700    0.000000000000
NE   -1.429563297418   -0.053564579443    1.588349646804
NE   -1.429563297418   -0.053564579443   -1.588349646804
