7
m062x-d3/def2-[st]zvpd:Ar-C2H4-rSE.xyz
 C    0.000000000000   -0.661149182697   -2.247705483941
 C   -0.000000000000    0.661149182697   -2.247705483941
 H    0.000000000000   -1.228595512818   -1.325379303946
 H    0.000000000000   -1.228394092803   -3.170158095904
 H   -0.000000000000    1.228394092803   -3.170158095904
 H   -0.000000000000    1.228595512818   -1.325379303946
AR    0.000000000000    0.000000000000    1.576641755056
