8
revpbe-d3bj/def2-tzvpd:HCCH-HCCH-rSE.xyz
 C    0.000000000000   -0.605435999226    2.187759419492
 H    0.000000000000   -1.677181977290    2.188622543090
 C   -0.000000000000    0.605435999226    2.187759419492
 H   -0.000000000000    1.677181977290    2.188622543090
 H   -0.000000000000    0.000000000000   -0.508488205760
 C   -0.000000000000    0.000000000000   -1.582292726949
 C   -0.000000000000    0.000000000000   -2.793551130344
 H   -0.000000000000    0.000000000000   -3.864886943104
