5
b97m-d3bj/def2-[st]zvpd:Ar-Ar-NNO-rSE.xyz
 N    1.903922818001    1.161220046383    0.000000000000
 N    1.836877698035    0.042797223337    0.000000000000
 O    1.762804210257   -1.131183416937    0.000000000000
AR   -1.008180731446    0.015430001242    1.876954454922
AR   -1.008180731446    0.015430001242   -1.876954454922
