5
b3lyp-d3bj/def2-tzvpd:Ne-Ar-NNO-rSE.xyz
 N   -1.594510618495   -0.747750473482   -1.154627403225
 N   -1.538042125708   -0.699554119093   -0.036504043769
 O   -1.475800361673   -0.647728345889    1.143472312769
AR    1.913162601138   -0.368576606013   -0.018067420225
NE   -0.449363263567    2.268671160006   -0.044427945483
