7
pbe0-d3/def2-tzvpd:HCN-H2CO-rSE.xyz
 C    2.252570628874    0.280769603460    0.000000000000
 H    1.903520651696    1.330937416865    0.000000000000
 H    3.346788624050    0.123422400465    0.000000000000
 O    1.486246174392   -0.642090513476    0.000000000000
 H   -0.540524758174   -0.352461814539    0.000000000000
 C   -1.557724716944    0.007158058830    0.000000000000
 N   -2.632077094485    0.407377023189    0.000000000000
