12
b97m-d3bj/def2-[st]zvpd:DMS-SO2-rSE.xyz
 S   -1.395079367168    0.360963439596    0.000000000000
 O   -1.477354729005   -0.398616343658   -1.228788850847
 O   -1.477354729005   -0.398616343658    1.228788850847
 S    1.412033291580    0.592557777520    0.000000000000
 C    1.549506339192   -0.546923689631   -1.367993042813
 C    1.549506339192   -0.546923689631    1.367993042813
 H    0.698583778010   -1.220680215074   -1.387082796326
 H    0.698583778010   -1.220680215074    1.387082796326
 H    1.552164483794    0.037483329350   -2.279568516701
 H    1.552164483794    0.037483329350    2.279568516701
 H    2.477315133697   -1.103018854066   -1.294056363092
 H    2.477315133697   -1.103018854066    1.294056363092
