7
m062x-d3/def2-tzvpd:HCN-H2CO-rSE.xyz
 C    2.439885709987    0.310815219936    0.000000000000
 H    2.315607758935    1.406024426838    0.000000000000
 H    3.471464707712   -0.075978726589    0.000000000000
 O    1.497450849711   -0.429299911324    0.000000000000
 H   -0.587452438881   -0.233673144842    0.000000000000
 C   -1.644423653795   -0.039114582957    0.000000000000
 N   -2.766353328723    0.178621928106    0.000000000000
