6
m062x-d3/def2-svpd:CS2-OCS-rSE.xyz
 S    0.845252656254   -1.675954359277    0.000000000000
 C    1.576697182324   -0.303308457314    0.000000000000
 S    2.294828765716    1.074867171281    0.000000000000
 C   -2.202033453335   -0.104096976256    0.000000000000
 O   -2.661468824444   -1.159779486982    0.000000000000
 S   -1.573901940240    1.334209510500    0.000000000000
