6
revpbe-d3bj/def2-tzvpd:CS2-OCS-rSE.xyz
 S    0.996495345048   -1.735510864368    0.000000000000
 C    1.677012769422   -0.326243457283    0.000000000000
 S    2.350238575513    1.086560316826    0.000000000000
 C   -2.326673987787   -0.071229470890    0.000000000000
 O   -2.788192092474   -1.148411416602    0.000000000000
 S   -1.708027788679    1.372657734622    0.000000000000
