12
m062x-d3/def2-svpd:DMS-SO2-rSE.xyz
 S   -1.399309154721    0.398957012230    0.000000000000
 O   -1.482878487142   -0.380177907292   -1.235248394073
 O   -1.482878487142   -0.380177907292    1.235248394073
 S    1.421698522515    0.571991447640    0.000000000000
 C    1.550270258632   -0.584619893465   -1.379829540588
 C    1.550270258632   -0.584619893465    1.379829540588
 H    0.697384138873   -1.276481501851   -1.375900138848
 H    0.697384138873   -1.276481501851    1.375900138848
 H    1.526246197673    0.003731155937   -2.303132535070
 H    1.526246197673    0.003731155937    2.303132535070
 H    2.496786707066   -1.133683971848   -1.317110283814
 H    2.496786707066   -1.133683971848    1.317110283814
