8
revpbe-d3bj/def2-qzvpd:HCCH-HCCH-rSE.xyz
 C    0.000000000000   -0.604666576143    2.190310798828
 H    0.000000000000   -1.675311596360    2.191276796346
 C   -0.000000000000    0.604666576143    2.190310798828
 H   -0.000000000000    1.675311596360    2.191276796346
 H    0.000000000000    0.000000000000   -0.512884722175
 C    0.000000000000    0.000000000000   -1.585587798842
 C    0.000000000000    0.000000000000   -2.795374826296
 H    0.000000000000    0.000000000000   -3.865608314712
