7
pbe0-d3/def2-[st]zvpd:Ne-C2H4-rSE.xyz
 C    0.000000000000   -0.661700739348   -1.450812160307
 C   -0.000000000000    0.661700739348   -1.450812160307
 H    0.000000000000   -1.231050971167   -0.527441918763
 H    0.000000000000   -1.231229858442   -2.374145718334
 H   -0.000000000000    1.231229858442   -2.374145718334
 H   -0.000000000000    1.231050971167   -0.527441918763
NE   -0.000000000000    0.000000000000    2.034172757137
