7
cam-b3lyp-d3bj/def2-svpd:Ne-C2H4-rSE.xyz
 C    0.000000000000   -0.663985112417   -1.394587682726
 C   -0.000000000000    0.663985112417   -1.394587682726
 H    0.000000000000   -1.235460258685   -0.465112051737
 H    0.000000000000   -1.235066777533   -2.324416614989
 H   -0.000000000000    1.235066777533   -2.324416614989
 H   -0.000000000000    1.235460258685   -0.465112051737
NE    0.000000000000    0.000000000000    1.955380017536
