7
wb97x-d3bj/def2-tzvpd:Ar-C2H4-rSE.xyz
 C    0.000000000000   -0.662331432669   -2.223555799304
 C   -0.000000000000    0.662331432669   -2.223555799304
 H    0.000000000000   -1.230941190289   -1.299196791037
 H    0.000000000000   -1.231119709765   -3.148006110091
 H   -0.000000000000    1.231119709765   -3.148006110091
 H   -0.000000000000    1.230941190289   -1.299196791037
AR    0.000000000000    0.000000000000    1.559700376343
