6
wb97x-d3bj/def2-[st]zvpd:CS2-OCS-rSE.xyz
 S    0.892532835844   -1.703446868673    0.000000000000
 C    1.622166477968   -0.340311289174    0.000000000000
 S    2.343975330229    1.025993155512    0.000000000000
 C   -2.265973870646   -0.048391950925    0.000000000000
 O   -2.740796032007   -1.098336274002    0.000000000000
 S   -1.623710329096    1.372817916692    0.000000000000
