5
wb97x-d3bj/def2-tzvpd:Ne-Ar-NNO-rSE.xyz
 N   -1.578611359420   -0.752658973775   -1.149955406735
 N   -1.525765726537   -0.701456790887   -0.036405517747
 O   -1.467076780892   -0.646026713293    1.141924947560
AR    1.889224903895   -0.356135948067   -0.020986423899
NE   -0.428228841392    2.247213126035   -0.040696618184
