5
pbe0-d3/def2-svpd:Ar-Ar-NNO-rSE.xyz
 N    1.805580262873    1.125156516243    0.000000000000
 N    1.830870782717    0.000430575212    0.000000000000
 O    1.850592099647   -1.175656627505    0.000000000000
AR   -1.007466890615    0.038071403667    1.943723730381
AR   -1.007466890615    0.038071403667   -1.943723730381
