7
pbe0-d3/def2-tzvpd:Ar-C2H4-rSE.xyz
 C    0.000000000000   -0.661672372589   -2.244255308495
 C   -0.000000000000    0.661672372589   -2.244255308495
 H    0.000000000000   -1.230573239196   -1.320600852157
 H    0.000000000000   -1.231404316856   -3.167424066217
 H   -0.000000000000    1.231404316856   -3.167424066217
 H   -0.000000000000    1.230573239196   -1.320600852157
AR   -0.000000000000    0.000000000000    1.574190781495
