8
cam-b3lyp-d3bj/def2-[st]zvpd:HCCH-HCCH-rSE.xyz
 C    0.000000000000   -0.596167144497    2.145372067654
 H    0.000000000000   -1.659783434042    2.146286848213
 C   -0.000000000000    0.596167144497    2.145372067654
 H   -0.000000000000    1.659783434042    2.146286848213
 H    0.000000000000    0.000000000000   -0.483629402851
 C    0.000000000000    0.000000000000   -1.549187384924
 C    0.000000000000    0.000000000000   -2.741891737898
 H    0.000000000000    0.000000000000   -3.804955654646
