9
wb97x-d3bj/def2-[st]zvpd:CH2ClF-HCCH-rSE.xyz
 C    3.123212839601    0.653173100975    0.079516092596
 H    3.593362851438    1.608087309925    0.145961331998
 C    2.606141357261   -0.423733968607    0.004744408578
 H    2.134795474380   -1.378549448052   -0.061558894585
 C   -0.608584652449    0.644463023265    0.027854576021
 F   -1.777651552056    1.348416162292    0.070425529762
CL   -0.953814654131   -1.089552600423   -0.081650810946
 H   -0.048731238018    0.818708929426    0.944326632184
 H   -0.046395281119    0.932081697959   -0.858181960603
