7
pbe0-d3/def2-qzvpd:Ne-C2H4-rSE.xyz
 C    0.000000000000   -0.661319321671   -1.453001830107
 C   -0.000000000000    0.661319321671   -1.453001830107
 H    0.000000000000   -1.229972448253   -0.530689307787
 H    0.000000000000   -1.230108743845   -2.375286465677
 H   -0.000000000000    1.230108743845   -2.375286465677
 H   -0.000000000000    1.229972448253   -0.530689307787
NE    0.000000000000    0.000000000000    2.037243769080
