6
b3lyp-d3bj/def2-tzvpd:HF-H2CO-rSE.xyz
 C    1.453657755663    0.499426550997    0.000000000000
 H    0.959350378076    1.484461104608    0.000000000000
 H    2.555137067095    0.485349320271    0.000000000000
 O    0.819501776957   -0.526559606050    0.000000000000
 H   -0.858403123854   -0.282564517105    0.000000000000
 F   -1.749021852157    0.038356311386    0.000000000000
