7
b3lyp-d3bj/def2-qzvpd:Ne-C2H4-rSE.xyz
 C    0.000000000000   -0.661984834362   -1.472043716114
 C   -0.000000000000    0.661984834362   -1.472043716114
 H    0.000000000000   -1.230664448587   -0.552024454785
 H    0.000000000000   -1.230674592805   -2.392208241740
 H   -0.000000000000    1.230674592805   -2.392208241740
 H   -0.000000000000    1.230664448587   -0.552024454785
NE   -0.000000000000    0.000000000000    2.063959759169
