7
b97m-d3bj/def2-[st]zvpd:HCN-H2CO-rSE.xyz
 C    2.260975748643    0.281133433060    0.000000000000
 H    1.914653092920    1.327228824301    0.000000000000
 H    3.351662366389    0.132720037736    0.000000000000
 O    1.498665105077   -0.642721428372    0.000000000000
 H   -0.558058354220   -0.343940156625    0.000000000000
 C   -1.568270718360    0.009446887636    0.000000000000
 N   -2.644317963285    0.404808902056    0.000000000000
