9
m062x-d3/def2-svpd:CH2ClF-HCCH-rSE.xyz
 C    3.020334750665    0.669362122742    0.080666102124
 H    3.482157644822    1.636158746833    0.146989026237
 C    2.514419286370   -0.423362947682    0.006058788755
 H    2.049232826075   -1.389465410295   -0.059744399513
 C   -0.585027406259    0.661275565737    0.025593878846
 F   -1.759500782440    1.329219646505    0.065505024132
CL   -0.900729526269   -1.092220456107   -0.078914599795
 H   -0.022681298797    0.841303435391    0.946496524637
 H   -0.023169922479    0.949409061961   -0.867802704702
