6
cam-b3lyp-d3bj/def2-[st]zvpd:HCl-H2CO-rSE.xyz
 C    1.988930011695    0.569984740947    0.000000000000
 H    1.325519394027    1.450180749964    0.000000000000
 H    3.074444072737    0.753329462435    0.000000000000
 O    1.547363101039   -0.546386513233    0.000000000000
CL   -1.508893869644    0.003544196615    0.000000000000
 H   -0.284976756967   -0.441644619662    0.000000000000
