5
revpbe-d3bj/def2-svpd:Ar-Ar-NNO-rSE.xyz
 N    1.901782926482    1.145496713796    0.000000000000
 N    1.946639994737   -0.000407749176    0.000000000000
 O    1.985841758807   -1.193856307137    0.000000000000
AR   -1.071671827993    0.038296817509    1.986198742101
AR   -1.071671827993    0.038296817509   -1.986198742101
