12
m062x-d3/def2-qzvpd:DMS-SO2-rSE.xyz
 S   -1.426929053888    0.349652455487    0.000000000000
 O   -1.484446704247   -0.401070212868   -1.219651604989
 O   -1.484446704247   -0.401070212868    1.219651604989
 S    1.422619683143    0.603977009197    0.000000000000
 C    1.579249071793   -0.544345038342   -1.371847368122
 C    1.579249071793   -0.544345038342    1.371847368122
 H    0.761678801301   -1.262512287083   -1.358523628159
 H    0.761678801301   -1.262512287083    1.358523628159
 H    1.523713054610    0.035349673753   -2.288405178214
 H    1.523713054610    0.035349673753    2.288405178214
 H    2.538361304445   -1.052529014263   -1.320887978394
 H    2.538361304445   -1.052529014263    1.320887978394
