8
cam-b3lyp-d3bj/def2-tzvpd:HF-HF-NH3-rSE.xyz
 N   -1.570324796303    0.709779634103    0.000176762314
 H   -0.833655578270    1.410115326112   -0.003151794590
 H   -2.143741726701    0.846269356298    0.823830533542
 H   -2.147871924072    0.842793169240   -0.821147105451
 F   -0.093979487522   -1.289873081155    0.002298446448
 H   -0.795698610437   -0.556012677619    0.001405254987
 F    1.508318097440    0.642720053490   -0.002450828405
 H    1.078062940191   -0.205678696663   -0.000520349835
