8
b97m-d3bj/def2-tzvpd:HCCH-HCCH-rSE.xyz
 C    0.000000000000   -0.597676858212    2.152508323740
 H    0.000000000000   -1.655034116830    2.153855206801
 C   -0.000000000000    0.597676858212    2.152508323740
 H   -0.000000000000    1.655034116830    2.153855206801
 H   -0.000000000000    0.000000000000   -0.494932164238
 C   -0.000000000000    0.000000000000   -1.554841628436
 C   -0.000000000000    0.000000000000   -2.750613362590
 H   -0.000000000000    0.000000000000   -3.807558967859
