6
wb97x-d3bj/def2-svpd:CS2-OCS-rSE.xyz
 S    0.883877069700   -1.681561769142    0.000000000000
 C    1.594979065614   -0.299811594878    0.000000000000
 S    2.294297953797    1.086574408952    0.000000000000
 C   -2.235570854382   -0.101298288674    0.000000000000
 O   -2.720121702132   -1.150948426479    0.000000000000
 S   -1.576926997794    1.321328806417    0.000000000000
