9
wb97x-d3bj/def2-tzvpd:CH2ClF-HCCH-rSE.xyz
 C    3.110969677994    0.712176055546    0.119510726343
 H    3.563113868728    1.670959410941    0.235973147223
 C    2.614209247989   -0.368858975605   -0.011650859982
 H    2.160902318051   -1.327576974688   -0.128123997192
 C   -0.621916478457    0.628525553840    0.065424066010
 F   -1.804963964135    1.306991013470    0.129936120149
CL   -0.931801091492   -1.103562627605   -0.138924551408
 H   -0.076422503371    0.764988353921    0.996844888720
 H   -0.055056654077    0.972809051252   -0.797055135432
