7
cam-b3lyp-d3bj/def2-tzvpd:Ne-C2H4-rSE.xyz
 C    0.000000000000   -0.659787914456   -1.417850045388
 C   -0.000000000000    0.659787914456   -1.417850045388
 H    0.000000000000   -1.227979838986   -0.496453397713
 H    0.000000000000   -1.228053346565   -2.339304426114
 H   -0.000000000000    1.228053346565   -2.339304426114
 H   -0.000000000000    1.227979838986   -0.496453397713
NE    0.000000000000    0.000000000000    1.987966260217
