5
b3lyp-d3bj/def2-qzvpd:Ar-Ar-NNO-rSE.xyz
 N    1.937036744233    1.148808280611    0.000000000000
 N    1.868830892509    0.031087104581    0.000000000000
 O    1.793247174680   -1.148752526732    0.000000000000
AR   -1.025673085679    0.023172244033    1.924342689731
AR   -1.025673085679    0.023172244033   -1.924342689731
