6
wb97x-d3bj/def2-[st]zvpd:HCl-H2CO-rSE.xyz
 C    1.986214957774    0.556623014766    0.000000000000
 H    1.302025240764    1.423983588874    0.000000000000
 H    3.069746686113    0.765502879608    0.000000000000
 O    1.568597129733   -0.573445593421    0.000000000000
CL   -1.516031588199    0.021547462194    0.000000000000
 H   -0.313797097601   -0.463743366466    0.000000000000
