12
b3lyp-d3bj/def2-[st]zvpd:DMS-SO2-rSE.xyz
 S   -1.430728784320    0.364187320359    0.000000000000
 O   -1.516747645580   -0.392789175381   -1.234050643817
 O   -1.516747645580   -0.392789175381    1.234050643817
 S    1.446837025349    0.590055996532    0.000000000000
 C    1.591965829254   -0.554656831081   -1.389815077664
 C    1.591965829254   -0.554656831081    1.389815077664
 H    0.735434555376   -1.228152126057   -1.421727292139
 H    0.735434555376   -1.228152126057    1.421727292139
 H    1.603386582557    0.045444890452   -2.297482588627
 H    1.603386582557    0.045444890452    2.297482588627
 H    2.522292714582   -1.115366588639   -1.313389815202
 H    2.522292714582   -1.115366588639    1.313389815202
