5
cam-b3lyp-d3bj/def2-[st]zvpd:Ne-Ne-NNO-rSE.xyz
 N    1.346825024097   -1.138663906178    0.000000000000
 N    1.258096175935   -0.029248480091    0.000000000000
 O    1.161464420542    1.145104536691    0.000000000000
NE   -1.376881163449   -0.049055685598    1.456456901659
NE   -1.376881163449   -0.049055685598   -1.456456901659
