8
m062x-d3/def2-tzvpd:HCCH-HCCH-rSE.xyz
 C    0.000000000000   -0.597558375595    2.176672181029
 H    0.000000000000   -1.662054450625    2.179289280647
 C   -0.000000000000    0.597558375595    2.176672181029
 H   -0.000000000000    1.662054450625    2.179289280647
 H    0.000000000000    0.000000000000   -0.512585641936
 C    0.000000000000    0.000000000000   -1.579324688133
 C    0.000000000000    0.000000000000   -2.774647751937
 H    0.000000000000    0.000000000000   -3.838514502079
