7
revpbe-d3bj/def2-[st]zvpd:Ar-C2H4-rSE.xyz
 C    0.000000000000   -0.668295221994   -2.340812388961
 C   -0.000000000000    0.668295221994   -2.340812388961
 H    0.000000000000   -1.242532899252   -1.411620320850
 H    0.000000000000   -1.242268899552   -3.270521039967
 H   -0.000000000000    1.242268899552   -3.270521039967
 H   -0.000000000000    1.242532899252   -1.411620320850
AR   -0.000000000000    0.000000000000    1.641970541839
