7
b3lyp-d3bj/def2-[st]zvpd:Ne-C2H4-rSE.xyz
 C    0.000000000000   -0.662415515407   -1.476413432338
 C   -0.000000000000    0.662415515407   -1.476413432338
 H    0.000000000000   -1.231985269695   -0.555037227708
 H    0.000000000000   -1.231986382231   -2.397956237107
 H   -0.000000000000    1.231986382231   -2.397956237107
 H   -0.000000000000    1.231985269695   -0.555037227708
NE   -0.000000000000    0.000000000000    2.070088667469
