7
revpbe-d3bj/def2-[st]zvpd:Ne-C2H4-rSE.xyz
 C    0.000000000000   -0.668320668881   -1.571265390398
 C   -0.000000000000    0.668320668881   -1.571265390398
 H    0.000000000000   -1.242730688140   -0.641985367338
 H    0.000000000000   -1.242439302276   -2.500895938934
 H   -0.000000000000    1.242439302276   -2.500895938934
 H   -0.000000000000    1.242730688140   -0.641985367338
NE   -0.000000000000    0.000000000000    2.203098665743
