5
pbe0-d3/def2-svpd:Ne-Ne-NNO-rSE.xyz
 N    1.309783421836   -1.131815083032    0.000000000000
 N    1.271529760675   -0.007516464335    0.000000000000
 O    1.225639004499    1.168065656213    0.000000000000
NE   -1.394284796237   -0.068249959579    1.499856142932
NE   -1.394284796237   -0.068249959579   -1.499856142932
